 This run of the CFX 2020 R2 Solver started at 10:37:44 on 20 Oct 2022
 by user VKis on SPBAPPSRV (intel_xeon64.sse2_winnt) using the command:
 
  "C:\Program Files\ANSYS Inc\v202\CFX\bin\perllib\cfx5solve.pl"
    -stdout-comms -batch -ccl -
 
 2020 R2
 
  Point Releases and Patches installed:
  ANSYS, Inc. Products 2020 R2
  SpaceClaim 2020 R2
  Discovery 2020 R2
  AIM 2020 R2
  Live (includes SpaceClaim) 2020 R2
  Autodyn 2020 R2
  LS-DYNA 2020 R2
  CFD-Post only 2020 R2
  CFX (includes CFD-Post) 2020 R2
  Chemkin 2020 R2
  EnSight 2020 R2
  FENSAP-ICE 2020 R2
  Fluent (includes CFD-Post) 2020 R2
  Forte (includes EnSight) 2020 R2
  Polyflow (includes CFD-Post) 2020 R2
  TurboGrid 2020 R2
  ICEM CFD 2020 R2
  Aqwa 2020 R2
  Customization Files for User Programmable Features 2020 R2
  Mechanical Products 2020 R2
  Additive 2020 R2
  Icepak (includes CFD-Post) 2020 R2
  Remote Solve Manager Standalone Services 2020 R2
  Viewer 2020 R2
  ACIS Geometry Interface 2020 R2
  AutoCAD Geometry Interface 2020 R2
  Catia, Version 4 Geometry Interface 2020 R2
  Catia, Version 5 Geometry Interface 2020 R2
  Catia, Version 6 Geometry Interface 2020 R2
  Creo Elements/Direct Modeling Geometry Interface 2020 R2
  Creo Parametric Geometry Interface 2020 R2
  Inventor Geometry Interface 2020 R2
  JTOpen Geometry Interface 2020 R2
  NX Geometry Interface 2020 R2
  Parasolid Geometry Interface  2020 R2
  Solid Edge Geometry Interface 2020 R2
  SOLIDWORKS Geometry Interface 2020 R2
  ANSYS, Inc. License Manager 2020 R2
 
 Setting up CFX Solver run ...
 
 
 +--------------------------------------------------------------------+
 |                                                                    |
 |                    CFX Command Language for Run                    |
 |                                                                    |
 +--------------------------------------------------------------------+
 
 LIBRARY:
   CEL:
     EXPRESSIONS:
       ENTER Initial Inlet Ptot = 101325 [Pa]
       ENTER Initial Inlet Ttot = 288 [K]
       ENTER Target Exit Ps = 100000 [Pa]
       InletMassFlow = massFlow()@Inlet
       Mechanical Speed = 43382[rev min^-1]
       Monitor Max Mach = maxVal(Mach)@Impeller
       Monitor PR = (massFlowAve(ptotstn )@Exit)/(massFlowAve(ptotstn )@Inlet)
       Monitor TR = (massFlowAve(Ttotstn )@Exit )/(massFlowAve(Ttotstn \
         )@Inlet )
       Monitor Wext = massFlow()@Exit*(-11)
       Monitor Winlet = massFlow()@Inlet*11
       PSRamp = ENTER Initial Inlet Ptot +(ENTER Target Exit Ps -ENTER \
         Initial Inlet Ptot )*Ramp Omega(aitern) ^3
       Timestep = (1.0[rad]/Mechanical Speed )*Timestep Multiplier(aitern)
       radius = (y^2+x^2)^0.5
     END
     FUNCTION: Alpha Profile
       Argument Units = [mm]
       Option = Interpolation
       Result Units = [deg]
       INTERPOLATION DATA:
         Data Pairs = 25,0,70,0
         Extend Max = Yes
         Extend Min = Yes
         Option = One Dimensional
       END
     END
     FUNCTION: Phi Profile
       Argument Units = [mm]
       Option = Interpolation
       Result Units = [deg]
       INTERPOLATION DATA:
         Data Pairs = 25,0,70,0
         Extend Max = Yes
         Extend Min = Yes
         Option = One Dimensional
       END
     END
     FUNCTION: Ptabs Profile
       Argument Units = [mm]
       Option = Interpolation
       Result Units = [Pa]
       INTERPOLATION DATA:
         Data Pairs = 25,99326,70,99326
         Extend Max = Yes
         Extend Min = Yes
         Option = One Dimensional
       END
     END
     FUNCTION: Ramp Omega
       Argument Units = []
       Option = Interpolation
       Result Units = []
       INTERPOLATION DATA:
         Data Pairs = 1,0.25,20,0.75,50,1.0,100,1.0
         Extend Max = Yes
         Extend Min = Yes
         Option = One Dimensional
       END
     END
     FUNCTION: Timestep Multiplier
       Argument Units = []
       Option = Interpolation
       Result Units = []
       INTERPOLATION DATA:
         Data Pairs = 1,0.025,10,1.0,100,1.0
         Extend Max = Yes
         Extend Min = Yes
         Option = One Dimensional
       END
     END
     FUNCTION: Tt Profile
       Argument Units = [mm]
       Option = Interpolation
       Result Units = [K]
       INTERPOLATION DATA:
         Data Pairs = 25,290,70,290
         Extend Max = Yes
         Extend Min = Yes
         Option = One Dimensional
       END
     END
   END
   MATERIAL: Air Ideal Gas Real
     Material Description = Air Ideal Gas Real
     Material Group = User
     Option = Pure Substance
     Thermodynamic State = Gas
     PROPERTIES:
       Option = General Material
       EQUATION OF STATE:
         Molar Mass = 28.96 [kg kmol^-1]
         Option = Ideal Gas
       END
       SPECIFIC HEAT CAPACITY:
         Option = NASA Format
         LOWER INTERVAL COEFFICIENTS:
           NASA a1 = 3.56839620E+00 []
           NASA a2 = -6.78729429E-04 [K^-1]
           NASA a3 = 1.55371476E-06 [K^-2]
           NASA a4 = -3.29937060E-12 [K^-3]
           NASA a5 = -4.66395387E-13 [K^-4]
           NASA a6 = -1.06234659E+03 [K]
           NASA a7 = 3.71582965E+00 []
         END
         TEMPERATURE LIMITS:
           Lower Temperature = 200 [K]
           Midpoint Temperature = 1000 [K]
           Upper Temperature = 6000 [K]
         END
         UPPER INTERVAL COEFFICIENTS:
           NASA a1 = 3.08792717E+00 []
           NASA a2 = 1.24597184E-03 [K^-1]
           NASA a3 = -4.23718945E-07 [K^-2]
           NASA a4 = 6.74774789E-11 [K^-3]
           NASA a5 = -3.97076972E-15 [K^-4]
           NASA a6 = -9.95262755E+02 [K]
           NASA a7 = 5.95960930E+00 []
         END
       END
       REFERENCE STATE:
         Option = NASA Format
         Reference Pressure = 1 [atm]
         Reference Temperature = 25 [C]
       END
       DYNAMIC VISCOSITY:
         Dynamic Viscosity = 1.79e-05 [kg m^-1 s^-1]
         Option = Value
       END
       THERMAL CONDUCTIVITY:
         Option = Value
         Thermal Conductivity = 0.0252 [W m^-1 K^-1]
       END
       ABSORPTION COEFFICIENT:
         Absorption Coefficient = 1.0 [m^-1]
         Option = Value
       END
       SCATTERING COEFFICIENT:
         Option = Value
         Scattering Coefficient = 0.0 [m^-1]
       END
       REFRACTIVE INDEX:
         Option = Value
         Refractive Index = 1.0 [m m^-1]
       END
     END
   END
 END
 FLOW: Flow Analysis 1
   SOLUTION UNITS:
     Angle Units = [rad]
     Length Units = [m]
     Mass Units = [kg]
     Solid Angle Units = [sr]
     Temperature Units = [K]
     Time Units = [s]
   END
   ANALYSIS TYPE:
     Option = Steady State
     EXTERNAL SOLVER COUPLING:
       Option = None
     END
   END
   DOMAIN: Cavity
     Coord Frame = Coord 0
     Domain Type = Fluid
     Location = em_402_imp_cavity_pos2
     BOUNDARY: Cav Imp Side 2
       Boundary Type = INTERFACE
       Location = cav_inlet
       BOUNDARY CONDITIONS:
         HEAT TRANSFER:
           Option = Conservative Interface Flux
         END
         MASS AND MOMENTUM:
           Option = Conservative Interface Flux
         END
         TURBULENCE:
           Option = Conservative Interface Flux
         END
       END
     END
     BOUNDARY: Cav Per Side 1
       Boundary Type = INTERFACE
       Location = cav_per1
       BOUNDARY CONDITIONS:
         HEAT TRANSFER:
           Option = Conservative Interface Flux
         END
         MASS AND MOMENTUM:
           Option = Conservative Interface Flux
         END
         TURBULENCE:
           Option = Conservative Interface Flux
         END
       END
     END
     BOUNDARY: Cav Per Side 2
       Boundary Type = INTERFACE
       Location = cav_per2
       BOUNDARY CONDITIONS:
         HEAT TRANSFER:
           Option = Conservative Interface Flux
         END
         MASS AND MOMENTUM:
           Option = Conservative Interface Flux
         END
         TURBULENCE:
           Option = Conservative Interface Flux
         END
       END
     END
     BOUNDARY: Cavity Default
       Boundary Type = WALL
       Location = Primitive 2D,Primitive 2D A,Primitive 2D B,Primitive 2D \
         C,Primitive 2D D,Primitive 2D E,Primitive 2D F,Primitive 2D \
         G,Primitive 2D H,Primitive 2D I,Primitive 2D J,Primitive 2D \
         K,Primitive 2D L,Primitive 2D M,Primitive 2D N,Primitive 2D \
         O,Primitive 2D P,Primitive 2D Q
       BOUNDARY CONDITIONS:
         HEAT TRANSFER:
           Option = Adiabatic
         END
         MASS AND MOMENTUM:
           Option = No Slip Wall
         END
         WALL ROUGHNESS:
           Option = Smooth Wall
         END
       END
     END
     BOUNDARY: Outlet
       Boundary Type = OPENING
       Location = cav_outlet
       BOUNDARY CONDITIONS:
         FLOW DIRECTION:
           Option = Normal to Boundary Condition
         END
         FLOW REGIME:
           Option = Subsonic
         END
         HEAT TRANSFER:
           Opening Temperature = 288 [K]
           Option = Opening Temperature
         END
         MASS AND MOMENTUM:
           Option = Opening Pressure and Direction
           Relative Pressure = 101325 [Pa]
         END
         TURBULENCE:
           Option = Medium Intensity and Eddy Viscosity Ratio
         END
       END
     END
     DOMAIN MODELS:
       BUOYANCY MODEL:
         Option = Non Buoyant
       END
       DOMAIN MOTION:
         Option = Stationary
       END
       MESH DEFORMATION:
         Option = None
       END
       REFERENCE PRESSURE:
         Reference Pressure = 0 [psi]
       END
     END
     FLUID DEFINITION: Air Ideal Gas Real
       Material = Air Ideal Gas Real
       Option = Material Library
       MORPHOLOGY:
         Option = Continuous Fluid
       END
     END
     FLUID MODELS:
       COMBUSTION MODEL:
         Option = None
       END
       HEAT TRANSFER MODEL:
         Include Viscous Work Term = On
         Option = Total Energy
       END
       THERMAL RADIATION MODEL:
         Option = None
       END
       TURBULENCE MODEL:
         Option = SST
         REATTACHMENT MODIFICATION:
           Option = Reattachment Production
         END
       END
       TURBULENT WALL FUNCTIONS:
         High Speed Model = On
         Option = Automatic
       END
     END
     INITIALISATION:
       Option = Automatic
       INITIAL CONDITIONS:
         Velocity Type = Cylindrical
         CYLINDRICAL VELOCITY COMPONENTS:
           Option = Automatic with Value
           Velocity Axial Component = 100 [m s^-1]
           Velocity Theta Component = 1 [m s^-1]
           Velocity r Component = 1 [m s^-1]
           AXIS DEFINITION:
             Option = Coordinate Axis
             Rotation Axis = Coord 0.3
           END
         END
         STATIC PRESSURE:
           Option = Automatic with Value
           Relative Pressure = 99800 [Pa]
         END
         TEMPERATURE:
           Option = Automatic with Value
           Temperature = 288 [K]
         END
         TURBULENCE INITIAL CONDITIONS:
           Option = Medium Intensity and Eddy Viscosity Ratio
         END
       END
     END
   END
   DOMAIN: Diffuser
     Coord Frame = Coord 0
     Domain Type = Fluid
     Location = Assembly 4
     BOUNDARY: Blade_GV1
       Boundary Type = WALL
       Location = BLADE,BLADE 4
       BOUNDARY CONDITIONS:
         HEAT TRANSFER:
           Option = Adiabatic
         END
         MASS AND MOMENTUM:
           Option = No Slip Wall
         END
         WALL ROUGHNESS:
           Option = Smooth Wall
         END
       END
     END
     BOUNDARY: Copy of HUB_GGI Side 1
       Boundary Type = INTERFACE
       Location = HUB TIP GGI SIDE 1 2
       BOUNDARY CONDITIONS:
         HEAT TRANSFER:
           Option = Conservative Interface Flux
         END
         MASS AND MOMENTUM:
           Option = Conservative Interface Flux
         END
         TURBULENCE:
           Option = Conservative Interface Flux
         END
       END
     END
     BOUNDARY: Copy of HUB_GGI Side 2
       Boundary Type = INTERFACE
       Location = HUB TIP GGI SIDE 2 2
       BOUNDARY CONDITIONS:
         HEAT TRANSFER:
           Option = Conservative Interface Flux
         END
         MASS AND MOMENTUM:
           Option = Conservative Interface Flux
         END
         TURBULENCE:
           Option = Conservative Interface Flux
         END
       END
     END
     BOUNDARY: Diff_ Periodic Side 1
       Boundary Type = INTERFACE
       Location = PER1
       BOUNDARY CONDITIONS:
         HEAT TRANSFER:
           Option = Conservative Interface Flux
         END
         MASS AND MOMENTUM:
           Option = Conservative Interface Flux
         END
         TURBULENCE:
           Option = Conservative Interface Flux
         END
       END
     END
     BOUNDARY: Diff_ Periodic Side 2
       Boundary Type = INTERFACE
       Location = PER2 2
       BOUNDARY CONDITIONS:
         HEAT TRANSFER:
           Option = Conservative Interface Flux
         END
         MASS AND MOMENTUM:
           Option = Conservative Interface Flux
         END
         TURBULENCE:
           Option = Conservative Interface Flux
         END
       END
     END
     BOUNDARY: FR1 Side 1
       Boundary Type = INTERFACE
       Location = OUTFLOW,OUTFLOW 2
       BOUNDARY CONDITIONS:
         HEAT TRANSFER:
           Option = Conservative Interface Flux
         END
         MASS AND MOMENTUM:
           Option = Conservative Interface Flux
         END
         TURBULENCE:
           Option = Conservative Interface Flux
         END
       END
     END
     BOUNDARY: HUB_GGI Side 1
       Boundary Type = INTERFACE
       Location = HUB TIP GGI SIDE 1
       BOUNDARY CONDITIONS:
         HEAT TRANSFER:
           Option = Conservative Interface Flux
         END
         MASS AND MOMENTUM:
           Option = Conservative Interface Flux
         END
         TURBULENCE:
           Option = Conservative Interface Flux
         END
       END
     END
     BOUNDARY: HUB_GGI Side 2
       Boundary Type = INTERFACE
       Location = HUB TIP GGI SIDE 2
       BOUNDARY CONDITIONS:
         HEAT TRANSFER:
           Option = Conservative Interface Flux
         END
         MASS AND MOMENTUM:
           Option = Conservative Interface Flux
         END
         TURBULENCE:
           Option = Conservative Interface Flux
         END
       END
     END
     BOUNDARY: Hub_Diff
       Boundary Type = WALL
       Location = HUB,HUB 2
       BOUNDARY CONDITIONS:
         HEAT TRANSFER:
           Option = Adiabatic
         END
         MASS AND MOMENTUM:
           Option = No Slip Wall
           WALL VELOCITY:
             Angular Velocity = Mechanical Speed*Ramp Omega(aitern)
             Option = Rotating Wall
             AXIS DEFINITION:
               Option = Coordinate Axis
               Rotation Axis = Coord 0.3
             END
           END
         END
         WALL ROUGHNESS:
           Option = Smooth Wall
         END
       END
     END
     BOUNDARY: Mix1 Side 2 1
       Boundary Type = INTERFACE
       Location = INFLOW,INFLOW 2
       BOUNDARY CONDITIONS:
         HEAT TRANSFER:
           Option = Conservative Interface Flux
         END
         MASS AND MOMENTUM:
           Option = Conservative Interface Flux
         END
         TURBULENCE:
           Option = Conservative Interface Flux
         END
       END
     END
     BOUNDARY: Shr_Diff
       Boundary Type = WALL
       Location = SHROUD,SHROUD 2
       BOUNDARY CONDITIONS:
         HEAT TRANSFER:
           Option = Adiabatic
         END
         MASS AND MOMENTUM:
           Option = No Slip Wall
         END
         WALL ROUGHNESS:
           Option = Smooth Wall
         END
       END
     END
     DOMAIN MODELS:
       BUOYANCY MODEL:
         Option = Non Buoyant
       END
       DOMAIN MOTION:
         Option = Stationary
       END
       MESH DEFORMATION:
         Option = None
       END
       REFERENCE PRESSURE:
         Reference Pressure = 0 [psi]
       END
     END
     FLUID DEFINITION: Air Ideal Gas Real
       Material = Air Ideal Gas Real
       Option = Material Library
       MORPHOLOGY:
         Option = Continuous Fluid
       END
     END
     FLUID MODELS:
       COMBUSTION MODEL:
         Option = None
       END
       HEAT TRANSFER MODEL:
         Include Viscous Work Term = On
         Option = Total Energy
       END
       THERMAL RADIATION MODEL:
         Option = None
       END
       TURBULENCE MODEL:
         Option = SST
         REATTACHMENT MODIFICATION:
           Option = Reattachment Production
         END
       END
       TURBULENT WALL FUNCTIONS:
         High Speed Model = On
         Option = Automatic
       END
     END
     INITIALISATION:
       Option = Automatic
       INITIAL CONDITIONS:
         Velocity Type = Cylindrical
         CYLINDRICAL VELOCITY COMPONENTS:
           Option = Automatic with Value
           Velocity Axial Component = 100 [m s^-1]
           Velocity Theta Component = 1 [m s^-1]
           Velocity r Component = 1 [m s^-1]
           AXIS DEFINITION:
             Option = Coordinate Axis
             Rotation Axis = Coord 0.3
           END
         END
         STATIC PRESSURE:
           Option = Automatic with Value
           Relative Pressure = 99800 [Pa]
         END
         TEMPERATURE:
           Option = Automatic with Value
           Temperature = 288 [K]
         END
         TURBULENCE INITIAL CONDITIONS:
           Option = Medium Intensity and Eddy Viscosity Ratio
         END
       END
     END
   END
   DOMAIN: Diffuser2
     Coord Frame = Coord 0
     Domain Type = Fluid
     Location = Assembly 5
     BOUNDARY: Blade_GV2
       Boundary Type = WALL
       Location = BLADE 2,BLADE 2 2
       BOUNDARY CONDITIONS:
         HEAT TRANSFER:
           Option = Adiabatic
         END
         MASS AND MOMENTUM:
           Option = No Slip Wall
         END
         WALL ROUGHNESS:
           Option = Smooth Wall
         END
       END
     END
     BOUNDARY: Diff2_Periodic Side 1
       Boundary Type = INTERFACE
       Location = OUTBlock PER1,Passage PER1
       BOUNDARY CONDITIONS:
         HEAT TRANSFER:
           Option = Conservative Interface Flux
         END
         MASS AND MOMENTUM:
           Option = Conservative Interface Flux
         END
         TURBULENCE:
           Option = Conservative Interface Flux
         END
       END
     END
     BOUNDARY: Diff2_Periodic Side 2
       Boundary Type = INTERFACE
       Location = OUTBlock PER2 2,Passage PER2 3
       BOUNDARY CONDITIONS:
         HEAT TRANSFER:
           Option = Conservative Interface Flux
         END
         MASS AND MOMENTUM:
           Option = Conservative Interface Flux
         END
         TURBULENCE:
           Option = Conservative Interface Flux
         END
       END
     END
     BOUNDARY: Exit
       Boundary Type = OUTLET
       Location = OUTBlock OUTFLOW,OUTBlock OUTFLOW 2
       BOUNDARY CONDITIONS:
         FLOW REGIME:
           Option = Subsonic
         END
         MASS AND MOMENTUM:
           Option = Average Static Pressure
           Pressure Profile Blend = 0.05
           Relative Pressure = PSRamp
         END
         PRESSURE AVERAGING:
           Option = Average Over Whole Outlet
         END
       END
     END
     BOUNDARY: FR1 Side 2 1
       Boundary Type = INTERFACE
       Location = Passage INFLOW,Passage INFLOW 3
       BOUNDARY CONDITIONS:
         HEAT TRANSFER:
           Option = Conservative Interface Flux
         END
         MASS AND MOMENTUM:
           Option = Conservative Interface Flux
         END
         TURBULENCE:
           Option = Conservative Interface Flux
         END
       END
     END
     BOUNDARY: Hub_Diff2
       Boundary Type = WALL
       Location = OUTBlock HUB,Passage HUB,OUTBlock HUB 2,Passage HUB 3
       BOUNDARY CONDITIONS:
         HEAT TRANSFER:
           Option = Adiabatic
         END
         MASS AND MOMENTUM:
           Option = No Slip Wall
         END
         WALL ROUGHNESS:
           Option = Smooth Wall
         END
       END
     END
     BOUNDARY: Shr_Diff2
       Boundary Type = WALL
       Location = SHROUD Passage 2,OUTBlock SHROUD,OUTBlock SHROUD 2,SHROUD \
         Passage 2 2
       BOUNDARY CONDITIONS:
         HEAT TRANSFER:
           Option = Adiabatic
         END
         MASS AND MOMENTUM:
           Option = No Slip Wall
         END
         WALL ROUGHNESS:
           Option = Smooth Wall
         END
       END
     END
     DOMAIN MODELS:
       BUOYANCY MODEL:
         Option = Non Buoyant
       END
       DOMAIN MOTION:
         Option = Stationary
       END
       MESH DEFORMATION:
         Option = None
       END
       REFERENCE PRESSURE:
         Reference Pressure = 0 [psi]
       END
     END
     FLUID DEFINITION: Air Ideal Gas Real
       Material = Air Ideal Gas Real
       Option = Material Library
       MORPHOLOGY:
         Option = Continuous Fluid
       END
     END
     FLUID MODELS:
       COMBUSTION MODEL:
         Option = None
       END
       HEAT TRANSFER MODEL:
         Include Viscous Work Term = On
         Option = Total Energy
       END
       THERMAL RADIATION MODEL:
         Option = None
       END
       TURBULENCE MODEL:
         Option = SST
         REATTACHMENT MODIFICATION:
           Option = Reattachment Production
         END
       END
       TURBULENT WALL FUNCTIONS:
         High Speed Model = On
         Option = Automatic
       END
     END
     INITIALISATION:
       Option = Automatic
       INITIAL CONDITIONS:
         Velocity Type = Cylindrical
         CYLINDRICAL VELOCITY COMPONENTS:
           Option = Automatic with Value
           Velocity Axial Component = 100 [m s^-1]
           Velocity Theta Component = 1 [m s^-1]
           Velocity r Component = 1 [m s^-1]
           AXIS DEFINITION:
             Option = Coordinate Axis
             Rotation Axis = Coord 0.3
           END
         END
         STATIC PRESSURE:
           Option = Automatic with Value
           Relative Pressure = 99800 [Pa]
         END
         TEMPERATURE:
           Option = Automatic with Value
           Temperature = 288 [K]
         END
         TURBULENCE INITIAL CONDITIONS:
           Option = Medium Intensity and Eddy Viscosity Ratio
         END
       END
     END
   END
   DOMAIN: Impeller
     Coord Frame = Coord 0
     Domain Type = Fluid
     Location = Assembly 3
     BOUNDARY: Blade
       Boundary Type = WALL
       Frame Type = Rotating
       Location = BLADE 3
       BOUNDARY CONDITIONS:
         HEAT TRANSFER:
           Option = Adiabatic
         END
         MASS AND MOMENTUM:
           Option = No Slip Wall
         END
         WALL ROUGHNESS:
           Option = Smooth Wall
         END
       END
     END
     BOUNDARY: Cav Imp Side 1
       Boundary Type = INTERFACE
       Location = Region 2
       BOUNDARY CONDITIONS:
         HEAT TRANSFER:
           Option = Conservative Interface Flux
         END
         MASS AND MOMENTUM:
           Option = Conservative Interface Flux
         END
         TURBULENCE:
           Option = Conservative Interface Flux
         END
       END
       NONOVERLAP CONDITIONS:
         Boundary Type = WALL
         BOUNDARY CONDITIONS:
           HEAT TRANSFER:
             Option = Adiabatic
           END
           MASS AND MOMENTUM:
             Option = No Slip Wall
             WALL VELOCITY:
               Option = Counter Rotating Wall
             END
           END
           WALL ROUGHNESS:
             Option = Smooth Wall
           END
         END
       END
     END
     BOUNDARY: IMP_HUB
       Boundary Type = WALL
       Frame Type = Rotating
       Location = INBlock HUB,Passage HUB 2
       BOUNDARY CONDITIONS:
         HEAT TRANSFER:
           Option = Adiabatic
         END
         MASS AND MOMENTUM:
           Option = No Slip Wall
         END
         WALL ROUGHNESS:
           Option = Smooth Wall
         END
       END
     END
     BOUNDARY: IMP_Hub1
       Boundary Type = WALL
       Frame Type = Rotating
       Location = Region 1
       BOUNDARY CONDITIONS:
         HEAT TRANSFER:
           Option = Adiabatic
         END
         MASS AND MOMENTUM:
           Option = Free Slip Wall
         END
       END
     END
     BOUNDARY: IMP_Periodic Side 1
       Boundary Type = INTERFACE
       Location = INBlock PER1,Passage PER1 2
       BOUNDARY CONDITIONS:
         HEAT TRANSFER:
           Option = Conservative Interface Flux
         END
         MASS AND MOMENTUM:
           Option = Conservative Interface Flux
         END
         TURBULENCE:
           Option = Conservative Interface Flux
         END
       END
     END
     BOUNDARY: IMP_Periodic Side 2
       Boundary Type = INTERFACE
       Location = INBlock PER2,Passage PER2 2
       BOUNDARY CONDITIONS:
         HEAT TRANSFER:
           Option = Conservative Interface Flux
         END
         MASS AND MOMENTUM:
           Option = Conservative Interface Flux
         END
         TURBULENCE:
           Option = Conservative Interface Flux
         END
       END
     END
     BOUNDARY: IMP_SHROUD
       Boundary Type = WALL
       Frame Type = Rotating
       Location = INBlock SHROUD,Passage SHROUD 2
       BOUNDARY CONDITIONS:
         HEAT TRANSFER:
           Option = Adiabatic
         END
         MASS AND MOMENTUM:
           Option = No Slip Wall
           WALL VELOCITY:
             Option = Counter Rotating Wall
           END
         END
         WALL ROUGHNESS:
           Option = Smooth Wall
         END
       END
     END
     BOUNDARY: Inlet
       Boundary Type = INLET
       Frame Type = Stationary
       Location = INBlock INFLOW
       BOUNDARY CONDITIONS:
         FLOW DIRECTION:
           Option = Normal to Boundary Condition
         END
         FLOW REGIME:
           Option = Subsonic
         END
         HEAT TRANSFER:
           Option = Stationary Frame Total Temperature
           Stationary Frame Total Temperature = 288.15 [K]
         END
         MASS AND MOMENTUM:
           Option = Stationary Frame Total Pressure
           Relative Pressure = 101325 [Pa]
         END
         TURBULENCE:
           Option = Medium Intensity and Eddy Viscosity Ratio
         END
       END
     END
     BOUNDARY: Mix1 Side 1
       Boundary Type = INTERFACE
       Location = Passage OUTFLOW 2
       BOUNDARY CONDITIONS:
         HEAT TRANSFER:
           Option = Conservative Interface Flux
         END
         MASS AND MOMENTUM:
           Option = Conservative Interface Flux
         END
         TURBULENCE:
           Option = Conservative Interface Flux
         END
       END
     END
     BOUNDARY: TIP GGI Side 1
       Boundary Type = INTERFACE
       Location = SHROUD TIP GGI SIDE 1
       BOUNDARY CONDITIONS:
         HEAT TRANSFER:
           Option = Conservative Interface Flux
         END
         MASS AND MOMENTUM:
           Option = Conservative Interface Flux
         END
         TURBULENCE:
           Option = Conservative Interface Flux
         END
       END
     END
     BOUNDARY: TIP GGI Side 2
       Boundary Type = INTERFACE
       Location = SHROUD TIP GGI SIDE 2
       BOUNDARY CONDITIONS:
         HEAT TRANSFER:
           Option = Conservative Interface Flux
         END
         MASS AND MOMENTUM:
           Option = Conservative Interface Flux
         END
         TURBULENCE:
           Option = Conservative Interface Flux
         END
       END
     END
     DOMAIN MODELS:
       BUOYANCY MODEL:
         Option = Non Buoyant
       END
       DOMAIN MOTION:
         Alternate Rotation Model = On
         Angular Velocity = Mechanical Speed*Ramp Omega(aitern)
         Option = Rotating
         AXIS DEFINITION:
           Option = Coordinate Axis
           Rotation Axis = Coord 0.3
         END
       END
       MESH DEFORMATION:
         Option = None
       END
       REFERENCE PRESSURE:
         Reference Pressure = 0 [psi]
       END
     END
     FLUID DEFINITION: Air Ideal Gas Real
       Material = Air Ideal Gas Real
       Option = Material Library
       MORPHOLOGY:
         Option = Continuous Fluid
       END
     END
     FLUID MODELS:
       COMBUSTION MODEL:
         Option = None
       END
       HEAT TRANSFER MODEL:
         Include Viscous Work Term = On
         Option = Total Energy
       END
       THERMAL RADIATION MODEL:
         Option = None
       END
       TURBULENCE MODEL:
         Option = SST
         REATTACHMENT MODIFICATION:
           Option = Reattachment Production
         END
       END
       TURBULENT WALL FUNCTIONS:
         High Speed Model = On
         Option = Automatic
       END
     END
     INITIALISATION:
       Frame Type = Stationary
       Option = Automatic
       INITIAL CONDITIONS:
         Velocity Type = Cylindrical
         CYLINDRICAL VELOCITY COMPONENTS:
           Option = Automatic with Value
           Velocity Axial Component = 100 [m s^-1]
           Velocity Theta Component = 1 [m s^-1]
           Velocity r Component = 1 [m s^-1]
         END
         STATIC PRESSURE:
           Option = Automatic with Value
           Relative Pressure = 99800 [Pa]
         END
         TEMPERATURE:
           Option = Automatic with Value
           Temperature = 288 [K]
         END
         TURBULENCE INITIAL CONDITIONS:
           Option = Medium Intensity and Eddy Viscosity Ratio
         END
       END
     END
   END
   DOMAIN INTERFACE: Cav Imp
     Boundary List1 = Cav Imp Side 1
     Boundary List2 = Cav Imp Side 2
     Interface Type = Fluid Fluid
     INTERFACE MODELS:
       Option = General Connection
       FRAME CHANGE:
         Option = Frozen Rotor
       END
       MASS AND MOMENTUM:
         Option = Conservative Interface Flux
         MOMENTUM INTERFACE MODEL:
           Option = None
         END
       END
       PITCH CHANGE:
         Option = Value
         Pitch Ratio = 1
       END
     END
     MESH CONNECTION:
       Option = GGI
     END
   END
   DOMAIN INTERFACE: Cav Per
     Boundary List1 = Cav Per Side 1
     Boundary List2 = Cav Per Side 2
     Interface Type = Fluid Fluid
     INTERFACE MODELS:
       Option = Rotational Periodicity
       AXIS DEFINITION:
         Option = Coordinate Axis
         Rotation Axis = Coord 0.3
       END
     END
     MESH CONNECTION:
       Option = Automatic
     END
   END
   DOMAIN INTERFACE: Diff2_Periodic
     Boundary List1 = Diff2_Periodic Side 1
     Boundary List2 = Diff2_Periodic Side 2
     Interface Type = Fluid Fluid
     INTERFACE MODELS:
       Option = Rotational Periodicity
       AXIS DEFINITION:
         Option = Coordinate Axis
         Rotation Axis = Coord 0.3
       END
     END
     MESH CONNECTION:
       Option = GGI
     END
   END
   DOMAIN INTERFACE: Diff_ Periodic
     Boundary List1 = Diff_ Periodic Side 1
     Boundary List2 = Diff_ Periodic Side 2
     Interface Type = Fluid Fluid
     INTERFACE MODELS:
       Option = Rotational Periodicity
       AXIS DEFINITION:
         Option = Coordinate Axis
         Rotation Axis = Coord 0.3
       END
     END
     MESH CONNECTION:
       Option = GGI
     END
   END
   DOMAIN INTERFACE: FR1
     Boundary List1 = FR1 Side 1
     Boundary List2 = FR1 Side 2 1
     Interface Type = Fluid Fluid
     INTERFACE MODELS:
       Option = General Connection
       FRAME CHANGE:
         Option = Frozen Rotor
       END
       MASS AND MOMENTUM:
         Option = Conservative Interface Flux
         MOMENTUM INTERFACE MODEL:
           Option = None
         END
       END
       PITCH CHANGE:
         Option = Value
         Pitch Ratio = 1
         AXIS DEFINITION:
           Option = Coordinate Axis
           Rotation Axis = Coord 0.3
         END
       END
     END
     MESH CONNECTION:
       Option = GGI
     END
   END
   DOMAIN INTERFACE: HUB_GGI
     Boundary List1 = HUB_GGI Side 1
     Boundary List2 = HUB_GGI Side 2
     Interface Type = Fluid Fluid
     INTERFACE MODELS:
       Option = General Connection
       FRAME CHANGE:
         Option = None
       END
       MASS AND MOMENTUM:
         Option = Conservative Interface Flux
         MOMENTUM INTERFACE MODEL:
           Option = None
         END
       END
       PITCH CHANGE:
         Option = None
       END
     END
     MESH CONNECTION:
       Option = GGI
     END
   END
   DOMAIN INTERFACE: HUB_GGI2
     Boundary List1 = Copy of HUB_GGI Side 1
     Boundary List2 = Copy of HUB_GGI Side 2
     Interface Type = Fluid Fluid
     INTERFACE MODELS:
       Option = General Connection
       FRAME CHANGE:
         Option = None
       END
       MASS AND MOMENTUM:
         Option = Conservative Interface Flux
         MOMENTUM INTERFACE MODEL:
           Option = None
         END
       END
       PITCH CHANGE:
         Option = None
       END
     END
     MESH CONNECTION:
       Option = GGI
     END
   END
   DOMAIN INTERFACE: IMP_Periodic
     Boundary List1 = IMP_Periodic Side 1
     Boundary List2 = IMP_Periodic Side 2
     Interface Type = Fluid Fluid
     INTERFACE MODELS:
       Option = Rotational Periodicity
       AXIS DEFINITION:
         Option = Coordinate Axis
         Rotation Axis = Coord 0.3
       END
     END
     MESH CONNECTION:
       Option = GGI
     END
   END
   DOMAIN INTERFACE: Mix1
     Boundary List1 = Mix1 Side 1
     Boundary List2 = Mix1 Side 2 1
     Interface Type = Fluid Fluid
     INTERFACE MODELS:
       Option = General Connection
       FRAME CHANGE:
         Implicit Stage Averaging = On
         Option = Stage
         DOWNSTREAM VELOCITY CONSTRAINT:
           Option = Stage Average Velocity
         END
       END
       PITCH CHANGE:
         Option = Value
         Pitch Ratio = 1
       END
     END
     MESH CONNECTION:
       Option = GGI
     END
   END
   DOMAIN INTERFACE: TIP GGI
     Boundary List1 = TIP GGI Side 1
     Boundary List2 = TIP GGI Side 2
     Interface Type = Fluid Fluid
     INTERFACE MODELS:
       Option = General Connection
       FRAME CHANGE:
         Option = None
       END
       MASS AND MOMENTUM:
         Option = Conservative Interface Flux
         MOMENTUM INTERFACE MODEL:
           Option = None
         END
       END
       PITCH CHANGE:
         Option = None
       END
     END
     MESH CONNECTION:
       Option = GGI
     END
   END
   OUTPUT CONTROL:
     MONITOR OBJECTS:
       EFFICIENCY OUTPUT:
         Efficiency Calculation Method = Total to Total
         Efficiency Type = Compression
         Inflow Boundary = Inlet
         Option = Output To Solver Monitor
         Outflow Boundary = Exit
       END
       MONITOR BALANCES:
         Option = Full
       END
       MONITOR FORCES:
         Option = Full
       END
       MONITOR PARTICLES:
         Option = Full
       END
       MONITOR POINT: Max Mach
         Coord Frame = Coord 0
         Expression Value = Monitor Max Mach
         Option = Expression
       END
       MONITOR POINT: Pressure Ratio
         Coord Frame = Coord 0
         Expression Value = Monitor PR
         Option = Expression
       END
       MONITOR POINT: Temperature Ratio
         Coord Frame = Coord 0
         Expression Value = Monitor TR
         Option = Expression
       END
       MONITOR POINT: Wext
         Coord Frame = Coord 0
         Expression Value = Monitor Wext
         Option = Expression
       END
       MONITOR POINT: Winl
         Coord Frame = Coord 0
         Expression Value = Monitor Winlet
         Option = Expression
       END
       MONITOR RESIDUALS:
         Option = Full
       END
       MONITOR TOTALS:
         Option = Full
       END
     END
     RESULTS:
       File Compression Level = Default
       Option = Standard
     END
   END
   SOLVER CONTROL:
     Turbulence Numerics = First Order
     ADVECTION SCHEME:
       Blend Factor Relaxation Option = 2
       Option = High Resolution
     END
     CONVERGENCE CONTROL:
       Maximum Number of Iterations = 200
       Minimum Number of Iterations = 1
       Physical Timescale = Timestep
       Timescale Control = Physical Timescale
     END
     CONVERGENCE CRITERIA:
       Conservation Target = 0.0005
       Residual Target = 1e-06
       Residual Type = RMS
     END
     DYNAMIC MODEL CONTROL:
       Global Dynamic Model Control = Yes
     END
     INTERRUPT CONTROL:
       Option = Any Interrupt
       CONVERGENCE CONDITIONS:
         Option = Default Conditions
       END
     END
   END
   EXPERT PARAMETERS:
     always output post processing = t
     topology estimate factor zif = 1.1
   END
 END
 COMMAND FILE:
   Results Version = 20.2
   Version = 20.2
 END
 SIMULATION CONTROL:
   EXECUTION CONTROL:
     EXECUTABLE SELECTION:
       Double Precision = No
       Large Problem = No
     END
     INTERPOLATOR STEP CONTROL:
       Runtime Priority = Standard
       MEMORY CONTROL:
         Memory Allocation Factor = 1.0
       END
     END
     PARALLEL HOST LIBRARY:
       HOST DEFINITION: spbappsrv
         Host Architecture String = winnt-amd64
         Installation Root = C:\Program Files\ANSYS Inc\v%v\CFX
       END
     END
     PARTITIONER STEP CONTROL:
       Multidomain Option = Independent Partitioning
       Runtime Priority = Standard
       EXECUTABLE SELECTION:
         Large Problem = Off
       END
       MEMORY CONTROL:
         Memory Allocation Factor = 1.0
       END
       PARTITION SMOOTHING:
         Maximum Partition Smoothing Sweeps = 100
         Option = Smooth
       END
       PARTITIONING TYPE:
         MeTiS Type = k-way
         Option = MeTiS
         Partition Size Rule = Automatic
         Partition Weight Factors = 0.06250, 0.06250, 0.06250, 0.06250, \
           0.06250, 0.06250, 0.06250, 0.06250, 0.06250, 0.06250, 0.06250, \
           0.06250, 0.06250, 0.06250, 0.06250, 0.06250
       END
     END
     RUN DEFINITION:
       Run Mode = Full
       Solver Input File = \
         F:/Kislov/EM_402_Unst/BL7_Hub_Tipcl_GV1_GV2_v1_80prct_ps1_Steady_with\
         _Cav_Yes_Open2_ps1.def
       Solver Results File = \
         F:\Kislov\EM_402_Unst\BL7_Hub_Tipcl_GV1_GV2_v1_80prct_ps1_Steady_with\
         _Cav_Yes_Open2_ps1_004.res
       INITIAL VALUES SPECIFICATION:
         INITIAL VALUES CONTROL:
           Continue History From = Initial Values 1
           Use Mesh From = Solver Input File
         END
         INITIAL VALUES: Initial Values 1
           File Name = \
             F:/Kislov/EM_402_Unst/BL7_Hub_Tipcl_GV1_GV2_v1_80prct_ps1_Steady_\
             002.res
           Option = Results File
         END
       END
     END
     SOLVER STEP CONTROL:
       Runtime Priority = Standard
       MEMORY CONTROL:
         Memory Allocation Factor = 1.0
       END
       PARALLEL ENVIRONMENT:
         Number of Processes = 16
         Start Method = Intel MPI Local Parallel
         Parallel Host List = spbappsrv*16
       END
     END
   END
 END
 
 
 +--------------------------------------------------------------------+
 |                                                                    |
 |                  Interpolation of Initial Values                   |
 |                                                                    |
 +--------------------------------------------------------------------+
 
 


 +--------------------------------------------------------------------+
 |                                                                    |
 |                    ANSYS(R) CFX(R) Interpolator                    |
 |                                                                    |
 | 2020 R2                                                            |
 | Build 20.2 2020-05-29T15:06:09.465000                              |
 | Fri May 29 17:17:43 GMTDT 2020                                     |
 |                                                                    |
 |                        Executable Attributes                       |
 |                                                                    |
 |           single-64bit-int32-archfort-optimised-std-lcomp          |
 |                                                                    |
 | (C) 1996-2020 ANSYS, Inc.                                          |
 |                                                                    |
 | All rights reserved. Unauthorized use, distribution or duplication |
 | is prohibited. This product is subject to U.S. laws governing      |
 | export and re-export. For full Legal Notice, see documentation.    |
 +--------------------------------------------------------------------+




 +--------------------------------------------------------------------+
 |                  Job Information at Start of Run                   |
 +--------------------------------------------------------------------+

 Run mode:       serial run

 Host computer:  SPBAPPSRV (PID:55376)

 Job started:    Thu Oct 20 10:37:50 2022


 +--------------------------------------------------------------------+
 |        Memory Allocated for Run  (Actual usage may be less)        |
 +--------------------------------------------------------------------+

           | Real       | Integer    | Character | Logical  | Double
 ----------+------------+------------+-----------+----------+----------
 Mwords    |      23.45 |      27.14 |      0.39 |     0.01 |     0.30
 Mbytes    |      89.46 |     103.54 |      0.37 |     0.04 |     2.29
 ----------+------------+------------+-----------+----------+----------


 +--------------------------------------------------------------------+
 |                  Host Memory Information (Mbytes)                  |
 +--------------------------------------------------------------------+
 |          Host           |     System     |   Allocated    |   %    |
 +-------------------------+----------------+----------------+--------+
 | SPBAPPSRV               |    261792.62   |       195.70   |   0.07 |
 +-------------------------+----------------+----------------+--------+

 ======================================================================
                   Interpolating Onto Domain "Cavity"
 ======================================================================

 Total Number of Nodes in the Target Domain              =       426926
 Bounding Box Volume of the Target Mesh                  =  3.17300E-04


 Checking all source domains from the source file:
   Target mesh is different from domain "Diffuser".
   Target mesh is different from domain "Diffuser2".
   Target domain motion is different from domain "Impeller".

 Searching for Candidate Source Domains:
   Domain "Diffuser"
     Number of Mapped Nodes                     =            0 (  0.0%)
     Bounding Box Overlap Volume                =  4.28118E-06 (  1.3%)
   Domain "Diffuser2"
     Number of Mapped Nodes                     =            0 (  0.0%)
     Bounding Box Overlap Volume                =  9.12413E-07 (  0.3%)

 Warning: The target mesh does not intersect with any source meshes 
          that have the same domain type and motion. 
          Skip the interpolation. 

 ======================================================================
                  Interpolating Onto Domain "Diffuser"
 ======================================================================

 Total Number of Nodes in the Target Domain              =       412350
 Bounding Box Volume of the Target Mesh                  =  7.33804E-05


 Checking all source domains from the source file:
   Target mesh is the same as domain "Diffuser".

 Start direct copying of variables from domain "Diffuser".

 +--------------------------------------------------------------------+
 |                     Variable Range Information                     |
 +--------------------------------------------------------------------+
 +--------------------------------------------------------------------+
 |      Variable Name                         |    min    |    max    |
 +--------------------------------------------------------------------+
 | Density.Beta                               |  2.68E-06 |  1.00E+00 |
 | Total Enthalpy.Beta                        |  7.90E-07 |  1.00E+00 |
 | Velocity u.Beta                            |  4.59E-06 |  1.00E+00 |
 | Velocity v.Beta                            |  2.38E-06 |  1.00E+00 |
 | Velocity w.Beta                            |  7.21E-06 |  1.00E+00 |
 | Polytropic Compression Efficiency          |  4.74E-03 |  1.00E+00 |
 | Isentropic Compression Efficiency          |  4.71E-03 |  1.00E+00 |
 | Isothermal Compressibility                 |  7.63E-06 |  2.07E-05 |
 | Thermal Conductivity                       |  2.52E-02 |  2.52E-02 |
 | Courant Number                             |  1.10E-01 |  1.39E+04 |
 | Density                                    |  5.60E-01 |  1.48E+00 |
 | Total Density in Rel Frame                 |  5.66E-01 |  1.51E+00 |
 | Total Density in Stn Frame                 |  5.66E-01 |  1.51E+00 |
 | Total Density                              |  5.66E-01 |  1.51E+00 |
 | Density Derivative wrt Pressure at Constant|  1.12E-05 |  1.34E-05 |
 | Static Enthalpy                            | -4.26E+04 |  7.22E+03 |
 | Rothalpy                                   | -2.54E+03 |  1.33E+04 |
 | Total Enthalpy in Stn Frame                | -2.54E+03 |  1.33E+04 |
 | Total Enthalpy                             | -2.54E+03 |  1.33E+04 |
 | Static Entropy                             |  6.82E+03 |  7.09E+03 |
 | Volume Porosity                            |  1.00E+00 |  1.00E+00 |
 | Density.Gradient                           |  1.45E-01 |  1.05E+04 |
 | Rothalpy.Gradient                          |  1.35E+03 |  5.28E+08 |
 | Total Enthalpy in Stn Frame.Gradient       |  1.35E+03 |  5.28E+08 |
 | Total Enthalpy.Gradient                    |  1.35E+03 |  5.28E+08 |
 | Pressure.Gradient                          |  4.22E+03 |  9.09E+08 |
 | Velocity u.Gradient                        |  1.65E+02 |  9.55E+06 |
 | Velocity v.Gradient                        |  6.44E+01 |  9.97E+06 |
 | Velocity w.Gradient                        |  4.32E+01 |  8.08E+06 |
 | Velocity in Stn Frame u.Gradient           |  1.65E+02 |  9.55E+06 |
 | Velocity in Stn Frame v.Gradient           |  6.44E+01 |  9.97E+06 |
 | Velocity in Stn Frame w.Gradient           |  4.32E+01 |  8.08E+06 |
 | Wall Scale.Gradient                        |  1.27E-05 |  6.89E-02 |
 | Isentropic Total Enthalpy                  | -6.82E+04 |  8.95E+03 |
 | Polytropic Total Enthalpy                  | -7.55E+04 |  8.92E+03 |
 | Mach Number in Stn Frame                   |  2.72E-05 |  9.50E-01 |
 | Mach Number                                |  2.72E-05 |  9.50E-01 |
 | Absolute Pressure                          |  4.82E+04 |  1.31E+05 |
 | Pressure                                   |  4.82E+04 |  1.31E+05 |
 | Total Pressure                             |  4.93E+04 |  1.33E+05 |
 | Total Pressure in Rel Frame                |  4.93E+04 |  1.33E+05 |
 | Total Pressure in Stn Frame                |  4.93E+04 |  1.33E+05 |
 | Real Partition Number                      |  1.00E+00 |  1.60E+01 |
 | Rotation Velocity                          |  0.00E+00 |  0.00E+00 |
 | Local Speed of Sound                       |  3.23E+02 |  3.53E+02 |
 | Specific Heat Capacity at Constant Pressure|  1.00E+03 |  1.01E+03 |
 | Specific Heat Capacity at Constant Volume  |  7.16E+02 |  7.19E+02 |
 | Specific Volume                            |  6.78E-01 |  1.79E+00 |
 | First Blending Function for BSL and SST mod|  1.76E-07 |  1.00E+00 |
 | Second Blending Function for SST model     |  4.19E-02 |  1.00E+00 |
 | Shear Strain Rate                          |  1.63E+03 |  1.22E+07 |
 | Turbulence Eddy Dissipation                |  1.88E+03 |  5.43E+09 |
 | Turbulence Eddy Frequency                  |  2.85E+04 |  1.75E+08 |
 | Temperature                                |  2.60E+02 |  3.10E+02 |
 | Turbulence Kinetic Energy                  |  3.34E-04 |  6.62E+03 |
 | Total Temperature in Rel Frame             |  3.00E+02 |  3.16E+02 |
 | Total Temperature in Stn Frame             |  3.00E+02 |  3.16E+02 |
 | Total Temperature                          |  3.00E+02 |  3.16E+02 |
 | Velocity in Stn Frame                      |  9.54E-03 |  3.07E+02 |
 | Velocity                                   |  9.54E-03 |  3.07E+02 |
 | Dynamic Viscosity                          |  1.79E-05 |  1.79E-05 |
 | Eddy Viscosity                             |  5.98E-12 |  2.17E-02 |
 | Wall Distance                              |  0.00E+00 |  1.05E-02 |
 | Wall Scale                                 | -1.98E-09 |  7.41E-05 |
 +--------------------------------------------------------------------+

 ======================================================================
                 Interpolating Onto Domain "Diffuser2"
 ======================================================================

 Total Number of Nodes in the Target Domain              =       375060
 Bounding Box Volume of the Target Mesh                  =  2.48523E-04


 Checking all source domains from the source file:
   Target mesh is different from domain "Diffuser".
   Target mesh is the same as domain "Diffuser2".

 Start direct copying of variables from domain "Diffuser2".

 +--------------------------------------------------------------------+
 |                     Variable Range Information                     |
 +--------------------------------------------------------------------+
 +--------------------------------------------------------------------+
 |      Variable Name                         |    min    |    max    |
 +--------------------------------------------------------------------+
 | Density.Beta                               |  2.03E-06 |  1.00E+00 |
 | Total Enthalpy.Beta                        |  6.94E-06 |  1.00E+00 |
 | Velocity u.Beta                            |  3.13E-06 |  1.00E+00 |
 | Velocity v.Beta                            |  8.88E-06 |  1.00E+00 |
 | Velocity w.Beta                            |  8.70E-06 |  1.00E+00 |
 | Polytropic Compression Efficiency          |  5.45E-03 |  1.00E+00 |
 | Isentropic Compression Efficiency          |  5.43E-03 |  1.00E+00 |
 | Isothermal Compressibility                 |  8.05E-06 |  1.81E-05 |
 | Thermal Conductivity                       |  2.52E-02 |  2.52E-02 |
 | Courant Number                             |  1.04E-01 |  2.93E+03 |
 | Density                                    |  6.55E-01 |  1.42E+00 |
 | Total Density in Rel Frame                 |  6.88E-01 |  1.46E+00 |
 | Total Density in Stn Frame                 |  6.88E-01 |  1.46E+00 |
 | Total Density                              |  6.88E-01 |  1.46E+00 |
 | Density Derivative wrt Pressure at Constant|  1.12E-05 |  1.32E-05 |
 | Static Enthalpy                            | -3.84E+04 |  7.53E+03 |
 | Rothalpy                                   | -2.99E+03 |  9.98E+03 |
 | Total Enthalpy in Stn Frame                | -2.99E+03 |  9.98E+03 |
 | Total Enthalpy                             | -2.99E+03 |  9.98E+03 |
 | Static Entropy                             |  6.83E+03 |  7.03E+03 |
 | Volume Porosity                            |  1.00E+00 |  1.00E+00 |
 | Density.Gradient                           |  3.48E-02 |  1.05E+04 |
 | Rothalpy.Gradient                          |  5.59E+02 |  4.99E+08 |
 | Total Enthalpy in Stn Frame.Gradient       |  5.59E+02 |  4.99E+08 |
 | Total Enthalpy.Gradient                    |  5.59E+02 |  4.99E+08 |
 | Pressure.Gradient                          |  1.23E+03 |  5.77E+08 |
 | Velocity u.Gradient                        |  2.14E+01 |  7.53E+06 |
 | Velocity v.Gradient                        |  2.07E+01 |  4.80E+06 |
 | Velocity w.Gradient                        |  2.04E+02 |  9.68E+06 |
 | Velocity in Stn Frame u.Gradient           |  2.14E+01 |  7.53E+06 |
 | Velocity in Stn Frame v.Gradient           |  2.07E+01 |  4.80E+06 |
 | Velocity in Stn Frame w.Gradient           |  2.04E+02 |  9.68E+06 |
 | Wall Scale.Gradient                        |  1.35E-05 |  1.05E-01 |
 | Isentropic Total Enthalpy                  | -5.56E+04 |  6.35E+03 |
 | Polytropic Total Enthalpy                  | -5.97E+04 |  6.30E+03 |
 | Mach Number in Stn Frame                   |  3.05E-05 |  8.91E-01 |
 | Mach Number                                |  3.05E-05 |  8.91E-01 |
 | Absolute Pressure                          |  5.53E+04 |  1.24E+05 |
 | Pressure                                   |  5.53E+04 |  1.24E+05 |
 | Total Pressure                             |  5.91E+04 |  1.29E+05 |
 | Total Pressure in Rel Frame                |  5.91E+04 |  1.29E+05 |
 | Total Pressure in Stn Frame                |  5.91E+04 |  1.29E+05 |
 | Real Partition Number                      |  1.00E+00 |  1.60E+01 |
 | Rotation Velocity                          |  0.00E+00 |  0.00E+00 |
 | Local Speed of Sound                       |  3.26E+02 |  3.53E+02 |
 | Specific Heat Capacity at Constant Pressure|  1.00E+03 |  1.01E+03 |
 | Specific Heat Capacity at Constant Volume  |  7.16E+02 |  7.19E+02 |
 | Specific Volume                            |  7.07E-01 |  1.53E+00 |
 | First Blending Function for BSL and SST mod|  7.07E-07 |  1.00E+00 |
 | Second Blending Function for SST model     |  5.20E-02 |  1.00E+00 |
 | Shear Strain Rate                          |  7.10E+02 |  1.06E+07 |
 | Turbulence Eddy Dissipation                |  6.09E+02 |  6.03E+09 |
 | Turbulence Eddy Frequency                  |  1.79E+04 |  1.71E+08 |
 | Temperature                                |  2.64E+02 |  3.10E+02 |
 | Turbulence Kinetic Energy                  |  8.10E-05 |  4.03E+03 |
 | Total Temperature in Rel Frame             |  2.99E+02 |  3.12E+02 |
 | Total Temperature in Stn Frame             |  2.99E+02 |  3.12E+02 |
 | Total Temperature                          |  2.99E+02 |  3.12E+02 |
 | Velocity in Stn Frame                      |  1.07E-02 |  2.90E+02 |
 | Velocity                                   |  1.07E-02 |  2.90E+02 |
 | Dynamic Viscosity                          |  1.79E-05 |  1.79E-05 |
 | Eddy Viscosity                             |  1.07E-12 |  2.22E-02 |
 | Wall Distance                              |  0.00E+00 |  2.15E-02 |
 | Wall Scale                                 | -4.28E-10 |  2.34E-04 |
 +--------------------------------------------------------------------+

 ======================================================================
                  Interpolating Onto Domain "Impeller"
 ======================================================================

 Total Number of Nodes in the Target Domain              =       542371
 Bounding Box Volume of the Target Mesh                  =  3.86661E-04


 Checking all source domains from the source file:
   Target domain motion is different from domain "Diffuser".
   Target domain motion is different from domain "Diffuser2".
   Target mesh is the same as domain "Impeller".

 Start direct copying of variables from domain "Impeller".

 +--------------------------------------------------------------------+
 |                     Variable Range Information                     |
 +--------------------------------------------------------------------+
 +--------------------------------------------------------------------+
 |      Variable Name                         |    min    |    max    |
 +--------------------------------------------------------------------+
 | Density.Beta                               |  2.98E-07 |  1.00E+00 |
 | Rothalpy.Beta                              |  0.00E+00 |  1.00E+00 |
 | Velocity in Stn Frame u.Beta               |  1.19E-07 |  1.00E+00 |
 | Velocity in Stn Frame v.Beta               |  4.17E-07 |  1.00E+00 |
 | Velocity in Stn Frame w.Beta               |  4.17E-07 |  1.00E+00 |
 | Polytropic Compression Efficiency          |  1.43E-03 |  1.00E+00 |
 | Isentropic Compression Efficiency          |  1.28E-03 |  1.00E+00 |
 | Isothermal Compressibility                 |  5.21E-06 |  2.10E-05 |
 | Thermal Conductivity                       |  2.52E-02 |  2.52E-02 |
 | Courant Number                             |  8.21E-01 |  1.63E+04 |
 | Density                                    |  5.60E-01 |  1.96E+00 |
 | Total Density in Rel Frame                 |  6.83E-01 |  2.05E+00 |
 | Total Density in Stn Frame                 |  5.94E-01 |  3.11E+00 |
 | Total Density                              |  4.32E-01 |  1.32E+00 |
 | Density Derivative wrt Pressure at Constant|  1.01E-05 |  1.41E-05 |
 | Static Enthalpy                            | -5.64E+04 |  4.29E+04 |
 | Rothalpy                                   | -2.63E+04 | -4.21E+03 |
 | Total Enthalpy in Stn Frame                | -4.05E+04 |  1.08E+05 |
 | Total Enthalpy                             | -1.46E+04 |  5.03E+04 |
 | Static Entropy                             |  6.81E+03 |  7.10E+03 |
 | Volume Porosity                            |  1.00E+00 |  1.00E+00 |
 | Density.Gradient                           |  9.18E-03 |  1.84E+04 |
 | Rothalpy.Gradient                          |  3.46E+00 |  7.97E+08 |
 | Pressure.Gradient                          |  7.86E+02 |  1.97E+09 |
 | Velocity u.Gradient                        |  9.85E+01 |  1.30E+07 |
 | Velocity v.Gradient                        |  1.68E+02 |  5.65E+06 |
 | Velocity w.Gradient                        |  1.75E+01 |  6.49E+06 |
 | Velocity in Stn Frame u.Gradient           |  4.86E+00 |  1.30E+07 |
 | Velocity in Stn Frame v.Gradient           |  5.87E+00 |  5.65E+06 |
 | Velocity in Stn Frame w.Gradient           |  1.46E+01 |  6.49E+06 |
 | Wall Scale.Gradient                        |  7.32E-06 |  1.31E-01 |
 | Isentropic Total Enthalpy                  | -6.49E+04 |  1.14E+05 |
 | Polytropic Total Enthalpy                  | -7.13E+04 |  1.13E+05 |
 | Mach Number in Stn Frame                   |  2.06E-03 |  1.04E+00 |
 | Mach Number                                |  5.73E-05 |  1.40E+00 |
 | Absolute Pressure                          |  4.77E+04 |  1.92E+05 |
 | Pressure                                   |  4.77E+04 |  1.92E+05 |
 | Total Pressure                             |  3.44E+04 |  1.09E+05 |
 | Total Pressure in Rel Frame                |  6.53E+04 |  2.03E+05 |
 | Total Pressure in Stn Frame                |  5.17E+04 |  3.66E+05 |
 | Real Partition Number                      |  1.00E+00 |  1.60E+01 |
 | Rotational Energy                          |  7.54E+00 |  5.80E+04 |
 | Rotation Velocity                          |  3.88E+00 |  3.41E+02 |
 | Local Speed of Sound                       |  3.15E+02 |  3.72E+02 |
 | Specific Heat Capacity at Constant Pressure|  1.00E+03 |  1.01E+03 |
 | Specific Heat Capacity at Constant Volume  |  7.16E+02 |  7.21E+02 |
 | Specific Volume                            |  5.11E-01 |  1.79E+00 |
 | First Blending Function for BSL and SST mod|  9.79E-09 |  1.00E+00 |
 | Second Blending Function for SST model     |  4.02E-04 |  1.00E+00 |
 | Shear Strain Rate                          |  1.21E+02 |  1.44E+07 |
 | Turbulence Eddy Dissipation                |  4.40E+03 |  4.80E+09 |
 | Turbulence Eddy Frequency                  |  1.79E+04 |  6.06E+07 |
 | Temperature                                |  2.46E+02 |  3.45E+02 |
 | Turbulence Kinetic Energy                  |  2.07E-03 |  2.90E+03 |
 | Total Temperature in Rel Frame             |  2.88E+02 |  3.52E+02 |
 | Total Temperature in Stn Frame             |  2.62E+02 |  4.10E+02 |
 | Total Temperature                          |  2.76E+02 |  2.98E+02 |
 | Velocity in Stn Frame                      |  6.99E-01 |  3.83E+02 |
 | Velocity                                   |  2.00E-02 |  4.41E+02 |
 | Dynamic Viscosity                          |  1.79E-05 |  1.79E-05 |
 | Eddy Viscosity                             |  7.70E-11 |  1.01E-02 |
 | Wall Distance                              |  0.00E+00 |  3.45E-02 |
 | Wall Scale                                 | -6.06E-09 |  6.90E-04 |
 +--------------------------------------------------------------------+

 ======================================================================
             Copy GGI Data Onto Domain Interface "Cav Imp"
 ======================================================================

 Checking all source domain interfaces from the source file:
   Target GGI is different from domain interface "Diff2_Periodic".
   Target GGI is different from domain interface "Diff_ Periodic".
   Target GGI is different from domain interface "FR1".
   Target GGI is different from domain interface "HUB_GGI".
   Target GGI is different from domain interface "HUB_GGI2".
   Target GGI is different from domain interface "IMP_Periodic".
   Target GGI is different from domain interface "Mix1".
   Target GGI is different from domain interface "TIP GGI".

 Skip GGI data from the source file.

 ======================================================================
             Copy GGI Data Onto Domain Interface "Cav Per"
 ======================================================================

 Checking all source domain interfaces from the source file:
   Target GGI is different from domain interface "Diff2_Periodic".
   Target GGI is different from domain interface "Diff_ Periodic".
   Target GGI is different from domain interface "FR1".
   Target GGI is different from domain interface "HUB_GGI".
   Target GGI is different from domain interface "HUB_GGI2".
   Target GGI is different from domain interface "IMP_Periodic".
   Target GGI is different from domain interface "Mix1".
   Target GGI is different from domain interface "TIP GGI".

 Skip GGI data from the source file.

 ======================================================================
          Copy GGI Data Onto Domain Interface "Diff2_Periodic"
 ======================================================================

 Checking all source domain interfaces from the source file:
   Target GGI is the same as domain interface "Diff2_Periodic".

 Start direct copying of variables from domain interface "Diff2_Periodic".

 +--------------------------------------------------------------------+
 |                   CS Variable Range Information                    |
 +--------------------------------------------------------------------+
 | Density                                    |  1.05E+00 |  1.22E+00 |
 | Density Derivative wrt Pressure at Constant|  1.13E-05 |  1.23E-05 |
 | Static Enthalpy                            | -1.88E+04 |  4.89E+03 |
 | Total Enthalpy                             |  2.87E+02 |  6.55E+03 |
 | Pressure                                   |  9.19E+04 |  1.03E+05 |
 | Turbulence Eddy Frequency                  |  1.92E+04 |  1.05E+08 |
 | Temperature                                |  2.84E+02 |  3.07E+02 |
 | Turbulence Kinetic Energy                  |  1.05E+00 |  1.34E+03 |
 | Velocity                                   |  1.03E+01 |  2.16E+02 |
 | Wall Scale                                 | -4.57E-12 |  2.33E-04 |
 +--------------------------------------------------------------------+

 +--------------------------------------------------------------------+
 |                   IP Variable Range Information                    |
 +--------------------------------------------------------------------+
 | Mass Flow                                  | -8.44E-05 |  8.44E-05 |
 +--------------------------------------------------------------------+

 ======================================================================
          Copy GGI Data Onto Domain Interface "Diff_ Periodic"
 ======================================================================

 Checking all source domain interfaces from the source file:
   Target GGI is different from domain interface "Diff2_Periodic".
   Target GGI is the same as domain interface "Diff_ Periodic".

 Start direct copying of variables from domain interface "Diff_ Periodic".

 +--------------------------------------------------------------------+
 |                   CS Variable Range Information                    |
 +--------------------------------------------------------------------+
 | Density                                    |  1.00E+00 |  1.26E+00 |
 | Density Derivative wrt Pressure at Constant|  1.14E-05 |  1.27E-05 |
 | Static Enthalpy                            | -2.92E+04 |  3.66E+03 |
 | Total Enthalpy                             |  1.74E+03 |  1.03E+04 |
 | Pressure                                   |  8.17E+04 |  1.06E+05 |
 | Turbulence Eddy Frequency                  |  3.14E+04 |  6.62E+07 |
 | Temperature                                |  2.73E+02 |  3.06E+02 |
 | Turbulence Kinetic Energy                  |  1.60E+00 |  1.05E+03 |
 | Velocity                                   |  1.27E+01 |  2.62E+02 |
 | Wall Scale                                 | -1.00E-11 |  7.41E-05 |
 +--------------------------------------------------------------------+

 +--------------------------------------------------------------------+
 |                   IP Variable Range Information                    |
 +--------------------------------------------------------------------+
 | Mass Flow                                  | -8.96E-05 |  8.96E-05 |
 +--------------------------------------------------------------------+

 ======================================================================
               Copy GGI Data Onto Domain Interface "FR1"
 ======================================================================

 Checking all source domain interfaces from the source file:
   Target GGI is different from domain interface "Diff2_Periodic".
   Target GGI is different from domain interface "Diff_ Periodic".
   Target GGI is the same as domain interface "FR1".

 Start direct copying of variables from domain interface "FR1".

 +--------------------------------------------------------------------+
 |                   CS Variable Range Information                    |
 +--------------------------------------------------------------------+
 | Density                                    |  1.05E+00 |  1.22E+00 |
 | Density Derivative wrt Pressure at Constant|  1.14E-05 |  1.23E-05 |
 | Static Enthalpy                            | -1.98E+04 |  3.21E+03 |
 | Total Enthalpy                             |  9.85E+02 |  1.07E+04 |
 | Pressure                                   |  9.11E+04 |  1.02E+05 |
 | Turbulence Eddy Frequency                  |  2.85E+04 |  6.40E+07 |
 | Temperature                                |  2.83E+02 |  3.06E+02 |
 | Turbulence Kinetic Energy                  |  4.11E-01 |  2.63E+03 |
 | Velocity                                   |  7.75E+00 |  2.19E+02 |
 | Wall Scale                                 | -1.04E-11 |  7.43E-05 |
 +--------------------------------------------------------------------+

 +--------------------------------------------------------------------+
 |                   IP Variable Range Information                    |
 +--------------------------------------------------------------------+
 | Mass Flow                                  | -1.08E-04 |  1.08E-04 |
 +--------------------------------------------------------------------+

 ======================================================================
             Copy GGI Data Onto Domain Interface "HUB_GGI"
 ======================================================================

 Checking all source domain interfaces from the source file:
   Target GGI is different from domain interface "Diff2_Periodic".
   Target GGI is different from domain interface "Diff_ Periodic".
   Target GGI is different from domain interface "FR1".
   Target GGI is the same as domain interface "HUB_GGI".

 Start direct copying of variables from domain interface "HUB_GGI".

 +--------------------------------------------------------------------+
 |                   CS Variable Range Information                    |
 +--------------------------------------------------------------------+
 | Density                                    |  8.31E-01 |  1.34E+00 |
 | Density Derivative wrt Pressure at Constant|  1.13E-05 |  1.30E-05 |
 | Static Enthalpy                            | -3.56E+04 |  4.60E+03 |
 | Total Enthalpy                             |  2.18E+03 |  1.17E+04 |
 | Pressure                                   |  7.04E+04 |  1.14E+05 |
 | Turbulence Eddy Frequency                  |  2.97E+05 |  1.09E+08 |
 | Temperature                                |  2.67E+02 |  3.07E+02 |
 | Turbulence Kinetic Energy                  |  4.99E+01 |  2.72E+03 |
 | Velocity                                   |  1.39E+01 |  2.89E+02 |
 | Wall Scale                                 |  5.55E-10 |  2.57E-07 |
 +--------------------------------------------------------------------+

 +--------------------------------------------------------------------+
 |                   IP Variable Range Information                    |
 +--------------------------------------------------------------------+
 | Mass Flow                                  | -1.18E-06 |  1.18E-06 |
 +--------------------------------------------------------------------+

 ======================================================================
             Copy GGI Data Onto Domain Interface "HUB_GGI2"
 ======================================================================

 Checking all source domain interfaces from the source file:
   Target GGI is different from domain interface "Diff2_Periodic".
   Target GGI is different from domain interface "Diff_ Periodic".
   Target GGI is different from domain interface "FR1".
   Target GGI is different from domain interface "HUB_GGI".
   Target GGI is the same as domain interface "HUB_GGI2".

 Start direct copying of variables from domain interface "HUB_GGI2".

 +--------------------------------------------------------------------+
 |                   CS Variable Range Information                    |
 +--------------------------------------------------------------------+
 | Density                                    |  8.11E-01 |  1.35E+00 |
 | Density Derivative wrt Pressure at Constant|  1.13E-05 |  1.31E-05 |
 | Static Enthalpy                            | -3.71E+04 |  4.64E+03 |
 | Total Enthalpy                             |  2.40E+03 |  1.17E+04 |
 | Pressure                                   |  6.92E+04 |  1.16E+05 |
 | Turbulence Eddy Frequency                  |  2.99E+05 |  1.10E+08 |
 | Temperature                                |  2.66E+02 |  3.07E+02 |
 | Turbulence Kinetic Energy                  |  5.00E+01 |  2.64E+03 |
 | Velocity                                   |  1.38E+01 |  2.94E+02 |
 | Wall Scale                                 |  5.55E-10 |  2.57E-07 |
 +--------------------------------------------------------------------+

 +--------------------------------------------------------------------+
 |                   IP Variable Range Information                    |
 +--------------------------------------------------------------------+
 | Mass Flow                                  | -1.20E-06 |  1.20E-06 |
 +--------------------------------------------------------------------+

 ======================================================================
           Copy GGI Data Onto Domain Interface "IMP_Periodic"
 ======================================================================

 Checking all source domain interfaces from the source file:
   Target GGI is different from domain interface "Diff2_Periodic".
   Target GGI is different from domain interface "Diff_ Periodic".
   Target GGI is different from domain interface "FR1".
   Target GGI is different from domain interface "HUB_GGI".
   Target GGI is different from domain interface "HUB_GGI2".
   Target GGI is the same as domain interface "IMP_Periodic".

 Start direct copying of variables from domain interface "IMP_Periodic".

 +--------------------------------------------------------------------+
 |                   CS Variable Range Information                    |
 +--------------------------------------------------------------------+
 | Density                                    |  1.03E+00 |  1.27E+00 |
 | Density Derivative wrt Pressure at Constant|  1.13E-05 |  1.26E-05 |
 | Static Enthalpy                            | -2.58E+04 |  6.83E+03 |
 | Total Enthalpy                             | -1.44E+04 |  4.89E+04 |
 | Pressure                                   |  8.80E+04 |  1.07E+05 |
 | Turbulence Eddy Frequency                  |  2.04E+04 |  3.13E+07 |
 | Temperature                                |  2.77E+02 |  3.09E+02 |
 | Turbulence Kinetic Energy                  |  3.58E-02 |  8.72E+02 |
 | Velocity                                   |  3.04E+00 |  3.57E+02 |
 | Wall Scale                                 | -8.07E-10 |  6.86E-04 |
 +--------------------------------------------------------------------+

 +--------------------------------------------------------------------+
 |                   IP Variable Range Information                    |
 +--------------------------------------------------------------------+
 | Mass Flow                                  | -1.03E-03 |  1.03E-03 |
 +--------------------------------------------------------------------+

 ======================================================================
               Copy GGI Data Onto Domain Interface "Mix1"
 ======================================================================

 Checking all source domain interfaces from the source file:
   Target GGI is different from domain interface "Diff2_Periodic".
   Target GGI is different from domain interface "Diff_ Periodic".
   Target GGI is different from domain interface "FR1".
   Target GGI is different from domain interface "HUB_GGI".
   Target GGI is different from domain interface "HUB_GGI2".
   Target GGI is different from domain interface "IMP_Periodic".
   Target GGI is the same as domain interface "Mix1".

 Start direct copying of variables from domain interface "Mix1".

 +--------------------------------------------------------------------+
 |                   CS Variable Range Information                    |
 +--------------------------------------------------------------------+
 | Density                                    |  1.21E+00 |  1.26E+00 |
 | Density Derivative wrt Pressure at Constant|  1.15E-05 |  1.19E-05 |
 | Static Enthalpy                            | -1.06E+04 | -5.58E+02 |
 | Total Enthalpy                             |  1.72E+03 |  8.00E+03 |
 | Pressure                                   |  1.04E+05 |  1.06E+05 |
 | Turbulence Eddy Frequency                  |  4.42E+04 |  3.99E+05 |
 | Temperature                                |  2.92E+02 |  3.02E+02 |
 | Turbulence Kinetic Energy                  |  3.19E+01 |  2.46E+02 |
 | Velocity                                   |  9.96E+01 |  1.75E+02 |
 | Wall Scale                                 |  1.51E-10 |  5.57E-05 |
 +--------------------------------------------------------------------+

 +--------------------------------------------------------------------+
 |                   IP Variable Range Information                    |
 +--------------------------------------------------------------------+
 | Mass Flow                                  | -9.69E-05 |  9.62E-05 |
 +--------------------------------------------------------------------+

 ======================================================================
             Copy GGI Data Onto Domain Interface "TIP GGI"
 ======================================================================

 Checking all source domain interfaces from the source file:
   Target GGI is different from domain interface "Diff2_Periodic".
   Target GGI is different from domain interface "Diff_ Periodic".
   Target GGI is different from domain interface "FR1".
   Target GGI is different from domain interface "HUB_GGI".
   Target GGI is different from domain interface "HUB_GGI2".
   Target GGI is different from domain interface "IMP_Periodic".
   Target GGI is different from domain interface "Mix1".
   Target GGI is the same as domain interface "TIP GGI".

 Start direct copying of variables from domain interface "TIP GGI".

 +--------------------------------------------------------------------+
 |                   CS Variable Range Information                    |
 +--------------------------------------------------------------------+
 | Density                                    |  6.87E-01 |  1.46E+00 |
 | Density Derivative wrt Pressure at Constant|  1.04E-05 |  1.30E-05 |
 | Static Enthalpy                            | -3.52E+04 |  3.31E+04 |
 | Total Enthalpy                             |  3.46E+04 |  4.97E+04 |
 | Pressure                                   |  5.76E+04 |  1.35E+05 |
 | Turbulence Eddy Frequency                  |  5.48E+05 |  3.33E+07 |
 | Temperature                                |  2.67E+02 |  3.35E+02 |
 | Turbulence Kinetic Energy                  |  6.23E+01 |  2.25E+03 |
 | Velocity                                   |  1.20E+02 |  3.97E+02 |
 | Wall Scale                                 |  3.42E-10 |  1.55E-07 |
 +--------------------------------------------------------------------+

 +--------------------------------------------------------------------+
 |                   IP Variable Range Information                    |
 +--------------------------------------------------------------------+
 | Mass Flow                                  | -1.34E-06 |  1.34E-06 |
 +--------------------------------------------------------------------+

 +--------------------------------------------------------------------+
 |                 CPU Requirements of Interpolation                  |
 +--------------------------------------------------------------------+

 Domain Name                     Tree Setup           Interpolation
                                (secs.   %total)     (secs.   %total) 
 ----------------------------------------------------------------------
 Cavity                         8.97E-01  26.2 %     0.00E+00   0.0 %
 Diffuser                       1.21E-01   3.5 %     3.30E-01   9.6 %
 Diffuser2                      1.14E-01   3.3 %     3.49E-01  10.2 %
 Impeller                       1.54E-01   4.5 %     3.95E-01  11.5 %
                                -------- -------     --------  ------
 Domain Summary                 1.29E+00  37.5 %     1.07E+00  31.3 %

 Miscellaneous                  1.07E+00   31.2 %
                                --------
 Total                          3.43E+00

 +--------------------------------------------------------------------+
 |                   Job Information at End of Run                    |
 +--------------------------------------------------------------------+

 Host computer:  SPBAPPSRV (PID:55376)

 Job finished:   Thu Oct 20 10:37:53 2022

 Total wall clock time: 3.420E+00 seconds
             or: (          0:         0:         0:     3.420 )
                 (       Days:     Hours:   Minutes:   Seconds )

 
 +--------------------------------------------------------------------+
 |                                                                    |
 |                            Partitioning                            |
 |                                                                    |
 +--------------------------------------------------------------------+
 



 +--------------------------------------------------------------------+
 |                                                                    |
 |                     ANSYS(R) CFX(R) Partitioner                    |
 |                                                                    |
 | 2020 R2                                                            |
 | Build 20.2 2020-05-29T15:06:09.465000                              |
 | Fri May 29 17:17:43 GMTDT 2020                                     |
[...]


 +--------------------------------------------------------------------+
 |                      Pressure Moment On Walls                      |
 +--------------------------------------------------------------------+
                                    X-Comp.      Y-Comp.      Z-Comp.

 Domain Group: Cavity

 Cavity Default                  -7.3582E+00  -5.1485E-01   3.8383E-06
 Blade                           -9.4820E-01   1.0693E-01  -7.0545E-01
 IMP_HUB                          1.4388E+00   6.1361E-02   2.3343E-05
 IMP_Hub1                        -7.3448E-02  -1.6666E-02  -2.8040E-11
 IMP_SHROUD                       6.2969E+00   9.8497E-01  -9.6442E-05
 Blade_GV1                        1.2294E-02  -2.2704E-01   1.0607E-01
 Hub_Diff                         2.9796E+00   5.1894E-01  -1.2993E-05
 Shr_Diff                        -7.0500E+00  -1.0064E+00   6.3830E-06
 Blade_GV2                       -3.3301E-02  -1.2715E+00   7.6563E-01
 Hub_Diff2                        1.7857E+01   4.5901E+00   6.8287E-06
 Shr_Diff2                       -4.7388E+01  -6.0334E+00  -3.0551E-05
                                  -----------  -----------  -----------
 Domain Group Totals :           -3.4267E+01  -2.8075E+00   1.6614E-01


 +--------------------------------------------------------------------+
 |                       Viscous Moment On Walls                      |
 +--------------------------------------------------------------------+
                                    X-Comp.      Y-Comp.      Z-Comp.

 Domain Group: Cavity

 Cavity Default                  -1.2412E-04  -1.6478E-05   4.0020E-05
 Blade                            1.3333E-02   5.1327E-03  -2.5017E-02
 IMP_HUB                          2.3935E-03   9.3924E-05  -1.2952E-03
 IMP_Hub1                         5.8137E-06   1.3103E-06  -3.4820E-10
 IMP_SHROUD                       6.3442E-03   3.8116E-04   1.7257E-03
 Blade_GV1                        1.5254E-02  -4.6654E-03   8.0830E-03
 Hub_Diff                         1.9339E-03   8.9496E-04  -5.2732E-04
 Shr_Diff                         6.9377E-03  -7.1369E-04   2.8752E-03
 Blade_GV2                        1.5981E-02   1.2813E-03   8.2172E-04
 Hub_Diff2                        4.3944E-03   1.7236E-04   6.3829E-04
 Shr_Diff2                        1.6223E-02   1.0768E-02  -4.2232E-03
                                  -----------  -----------  -----------
 Domain Group Totals :            8.2677E-02   1.3330E-02  -1.6879E-02


 +--------------------------------------------------------------------+
 |                   Locations of Maximum Residuals                   |
 +--------------------------------------------------------------------+
 |       Equation       |      Domain Name      |     Node Number     |
 +--------------------------------------------------------------------+
 | U-Mom                | Impeller              |         202067      |
 | V-Mom                | Impeller              |         202090      |
 | W-Mom                | Impeller              |         202113      |
 | P-Mass               | Diffuser2             |         227280      |
 +----------------------+-----------------------+---------------------+
 | H-Energy             | Diffuser              |          79840      |
 +----------------------+-----------------------+---------------------+
 | K-TurbKE             | Diffuser              |          79863      |
 | O-TurbFreq           | Diffuser              |         207943      |
 +----------------------+-----------------------+---------------------+

 ======================================================================
 |                     False Transient Information                    |
 +--------------------------------------------------------------------+
 |       Equation       |         Type          | Elapsed Pseudo-Time |
 +--------------------------------------------------------------------+
 | U-Mom-Cavity         | Physical Timescale    |     4.40242E-02     |
 | V-Mom-Cavity         | Physical Timescale    |     4.40242E-02     |
 | W-Mom-Cavity         | Physical Timescale    |     4.40242E-02     |
 | P-Mass-Cavity        | Physical Timescale    |     4.40242E-02     |
 | U-Mom-Impeller       | Physical Timescale    |     1.29899E-01     |
 | V-Mom-Impeller       | Physical Timescale    |     1.29899E-01     |
 | W-Mom-Impeller       | Physical Timescale    |     1.29899E-01     |
 | P-Mass-Impeller      | Physical Timescale    |     1.29899E-01     |
 | U-Mom-Diffuser       | Physical Timescale    |     1.29899E-01     |
 | V-Mom-Diffuser       | Physical Timescale    |     1.29899E-01     |
 | W-Mom-Diffuser       | Physical Timescale    |     1.29899E-01     |
 | P-Mass-Diffuser      | Physical Timescale    |     1.29899E-01     |
 | U-Mom-Diffuser2      | Physical Timescale    |     1.29899E-01     |
 | V-Mom-Diffuser2      | Physical Timescale    |     1.29899E-01     |
 | W-Mom-Diffuser2      | Physical Timescale    |     1.29899E-01     |
 | P-Mass-Diffuser2     | Physical Timescale    |     1.29899E-01     |
 +----------------------+-----------------------+---------------------+
 | H-Energy-Cavity      | Physical Timescale    |     4.40242E-02     |
 | H-Energy-Impeller    | Physical Timescale    |     1.29899E-01     |
 | H-Energy-Diffuser    | Physical Timescale    |     1.29899E-01     |
 | H-Energy-Diffuser2   | Physical Timescale    |     1.29899E-01     |
 +----------------------+-----------------------+---------------------+
 | K-TurbKE-Cavity      | Physical Timescale    |     4.40242E-02     |
 | O-TurbFreq-Cavity    | Physical Timescale    |     4.40242E-02     |
 | K-TurbKE-Impeller    | Physical Timescale    |     1.29899E-01     |
 | O-TurbFreq-Impeller  | Physical Timescale    |     1.29899E-01     |
 | K-TurbKE-Diffuser    | Physical Timescale    |     1.29899E-01     |
 | O-TurbFreq-Diffuser  | Physical Timescale    |     1.29899E-01     |
 | K-TurbKE-Diffuser2   | Physical Timescale    |     1.29899E-01     |
 | O-TurbFreq-Diffuser2 | Physical Timescale    |     1.29899E-01     |
 +----------------------+-----------------------+---------------------+

 +--------------------------------------------------------------------+
 |                     Average Scale Information                      |
 +--------------------------------------------------------------------+

 Domain Name : Cavity
     Global Length                                         = 5.4443E-02
     Minimum Extent                                        = 4.7310E-02
     Maximum Extent                                        = 1.0189E-01
     Density                                               = 1.2146E+00
     Dynamic Viscosity                                     = 1.7900E-05
     Velocity                                              = 1.9661E+01
     Advection Time                                        = 2.7692E-03
     Reynolds Number                                       = 7.2630E+04
     Speed of Sound                                        = 3.4094E+02
     Mach Number                                           = 5.7665E-02
     Thermal Conductivity                                  = 2.5200E-02
     Specific Heat Capacity at Constant Pressure           = 1.0045E+03
     Specific Heat Capacity at Constant Volume             = 7.1738E+02
     Specific Heat Ratio                                   = 1.4002E+00
     Prandtl Number                                        = 7.1350E-01
     Temperature Range                                     = 2.1418E+01

 Domain Name : Diffuser
     Global Length                                         = 3.3443E-02
     Minimum Extent                                        = 3.9873E-02
     Maximum Extent                                        = 4.5378E-02
     Density                                               = 1.0997E+00
     Dynamic Viscosity                                     = 1.7900E-05
     Velocity                                              = 1.7143E+02
     Advection Time                                        = 1.9508E-04
     Reynolds Number                                       = 3.5222E+05
     Speed of Sound                                        = 3.4261E+02
     Mach Number                                           = 5.0037E-01
     Thermal Conductivity                                  = 2.5200E-02
     Specific Heat Capacity at Constant Pressure           = 1.0047E+03
     Specific Heat Capacity at Constant Volume             = 7.1758E+02
     Specific Heat Ratio                                   = 1.4001E+00
     Prandtl Number                                        = 7.1364E-01
     Temperature Range                                     = 4.9139E+01

 Domain Name : Diffuser2
     Global Length                                         = 4.8593E-02
     Minimum Extent                                        = 3.9966E-02
     Maximum Extent                                        = 1.1600E-01
     Density                                               = 1.1369E+00
     Dynamic Viscosity                                     = 1.7900E-05
     Velocity                                              = 1.2070E+02
     Advection Time                                        = 4.0259E-04
     Reynolds Number                                       = 3.7252E+05
     Speed of Sound                                        = 3.4654E+02
     Mach Number                                           = 3.4831E-01
     Thermal Conductivity                                  = 2.5200E-02
     Specific Heat Capacity at Constant Pressure           = 1.0050E+03
     Specific Heat Capacity at Constant Volume             = 7.1792E+02
     Specific Heat Ratio                                   = 1.3999E+00
     Prandtl Number                                        = 7.1388E-01
     Temperature Range                                     = 4.5323E+01

 Domain Name : Impeller
     Global Length                                         = 4.9923E-02
     Minimum Extent                                        = 5.6910E-02
     Maximum Extent                                        = 9.1500E-02
     Density                                               = 1.1433E+00
     Dynamic Viscosity                                     = 1.7900E-05
     Velocity                                              = 2.5603E+02
     Advection Time                                        = 1.9499E-04
     Reynolds Number                                       = 8.1636E+05
     Speed of Sound                                        = 3.4262E+02
     Mach Number                                           = 7.4725E-01
     Thermal Conductivity                                  = 2.5200E-02
     Specific Heat Capacity at Constant Pressure           = 1.0047E+03
     Specific Heat Capacity at Constant Volume             = 7.1761E+02
     Specific Heat Ratio                                   = 1.4001E+00
     Prandtl Number                                        = 7.1367E-01
     Temperature Range                                     = 1.0796E+02

 +--------------------------------------------------------------------+
 |                     Variable Range Information                     |
 +--------------------------------------------------------------------+

 Domain Name : Cavity
 +--------------------------------------------------------------------+
 |      Variable Name                         |    min    |    max    |
 +--------------------------------------------------------------------+
 | Density                                    |  1.14E+00 |  1.22E+00 |
 | Specific Heat Capacity at Constant Pressure|  1.00E+03 |  1.01E+03 |
 | Dynamic Viscosity                          |  1.79E-05 |  1.79E-05 |
 | Thermal Conductivity                       |  2.52E-02 |  2.52E-02 |
 | Isothermal Compressibility                 |  9.87E-06 |  1.08E-05 |
 | Static Entropy                             |  6.82E+03 |  6.88E+03 |
 | Velocity u                                 | -5.33E+01 |  6.25E+01 |
 | Velocity v                                 | -1.20E+02 |  4.27E+01 |
 | Velocity w                                 | -8.25E+01 |  4.74E+01 |
 | Pressure                                   |  9.26E+04 |  1.01E+05 |
 | Turbulence Kinetic Energy                  |  3.96E-06 |  7.73E+02 |
 | Turbulence Eddy Frequency                  |  9.43E+02 |  1.72E+08 |
 | Eddy Viscosity                             |  7.03E-13 |  4.43E-03 |
 | Temperature                                |  2.79E+02 |  3.00E+02 |
 | Static Enthalpy                            | -2.40E+04 | -2.48E+03 |
 | Total Enthalpy                             | -1.46E+04 | -9.52E+02 |
 | Wall Scale                                 | -1.10E-08 |  1.12E-04 |
 | Wall Distance                              |  0.00E+00 |  1.49E-02 |
 +--------------------------------------------------------------------+

 Domain Name : Diffuser
 +--------------------------------------------------------------------+
 |      Variable Name                         |    min    |    max    |
 +--------------------------------------------------------------------+
 | Density                                    |  5.69E-01 |  1.47E+00 |
 | Specific Heat Capacity at Constant Pressure|  1.00E+03 |  1.01E+03 |
 | Dynamic Viscosity                          |  1.79E-05 |  1.79E-05 |
 | Thermal Conductivity                       |  2.52E-02 |  2.52E-02 |
 | Isothermal Compressibility                 |  7.64E-06 |  2.05E-05 |
 | Static Entropy                             |  6.82E+03 |  7.09E+03 |
 | Velocity u                                 | -2.57E+02 |  1.34E+02 |
 | Velocity v                                 | -2.06E+02 |  2.14E+02 |
 | Velocity w                                 | -8.37E+01 |  2.94E+02 |
 | Pressure                                   |  4.88E+04 |  1.31E+05 |
 | Turbulence Kinetic Energy                  |  7.71E-04 |  6.94E+03 |
 | Turbulence Eddy Frequency                  |  2.93E+04 |  1.76E+08 |
 | Eddy Viscosity                             |  1.46E-11 |  1.88E-02 |
 | Temperature                                |  2.60E+02 |  3.09E+02 |
 | Static Enthalpy                            | -4.23E+04 |  7.01E+03 |
 | Total Enthalpy                             | -2.72E+03 |  1.32E+04 |
 | Wall Scale                                 | -1.99E-09 |  7.41E-05 |
 | Wall Distance                              |  0.00E+00 |  1.05E-02 |
 +--------------------------------------------------------------------+

 Domain Name : Diffuser2
 +--------------------------------------------------------------------+
 |      Variable Name                         |    min    |    max    |
 +--------------------------------------------------------------------+
 | Density                                    |  6.53E-01 |  1.41E+00 |
 | Specific Heat Capacity at Constant Pressure|  1.00E+03 |  1.01E+03 |
 | Dynamic Viscosity                          |  1.79E-05 |  1.79E-05 |
 | Thermal Conductivity                       |  2.52E-02 |  2.52E-02 |
 | Isothermal Compressibility                 |  8.07E-06 |  1.82E-05 |
 | Static Entropy                             |  6.83E+03 |  7.03E+03 |
 | Velocity u                                 | -2.11E+02 |  6.15E+01 |
 | Velocity v                                 | -1.49E+02 |  7.71E+01 |
 | Velocity w                                 | -9.19E+01 |  2.53E+02 |
 | Pressure                                   |  5.51E+04 |  1.24E+05 |
 | Turbulence Kinetic Energy                  |  9.09E-05 |  3.91E+03 |
 | Turbulence Eddy Frequency                  |  1.80E+04 |  1.70E+08 |
 | Eddy Viscosity                             |  1.15E-12 |  1.98E-02 |
 | Temperature                                |  2.65E+02 |  3.10E+02 |
 | Static Enthalpy                            | -3.81E+04 |  7.47E+03 |
 | Total Enthalpy                             | -3.05E+03 |  9.96E+03 |
 | Wall Scale                                 | -4.29E-10 |  2.34E-04 |
 | Wall Distance                              |  0.00E+00 |  2.15E-02 |
 +--------------------------------------------------------------------+

 Domain Name : Impeller
 +--------------------------------------------------------------------+
 |      Variable Name                         |    min    |    max    |
 +--------------------------------------------------------------------+
 | Density                                    |  4.52E-01 |  1.93E+00 |
 | Specific Heat Capacity at Constant Pressure|  1.00E+03 |  1.01E+03 |
 | Dynamic Viscosity                          |  1.79E-05 |  1.79E-05 |
 | Thermal Conductivity                       |  2.52E-02 |  2.52E-02 |
 | Isothermal Compressibility                 |  5.26E-06 |  2.64E-05 |
 | Static Entropy                             |  6.81E+03 |  7.15E+03 |
 | Velocity u                                 | -6.40E+01 |  4.11E+02 |
 | Velocity v                                 | -1.44E+02 |  2.70E+02 |
 | Velocity w                                 | -1.51E+02 |  2.56E+02 |
 | Pressure                                   |  3.79E+04 |  1.90E+05 |
 | Turbulence Kinetic Energy                  |  2.21E-03 |  3.00E+03 |
 | Turbulence Eddy Frequency                  |  1.76E+04 |  7.23E+07 |
 | Eddy Viscosity                             |  8.21E-11 |  1.01E-02 |
 | Temperature                                |  2.36E+02 |  3.44E+02 |
 | Static Enthalpy                            | -6.66E+04 |  4.19E+04 |
 | Total Enthalpy                             | -1.44E+04 |  5.78E+04 |
 | Wall Scale                                 | -6.27E-09 |  7.00E-04 |
 | Wall Distance                              |  0.00E+00 |  3.45E-02 |
 +--------------------------------------------------------------------+

 +--------------------------------------------------------------------+
 |           CPU Requirements of Numerical Solution - Total           |
 +--------------------------------------------------------------------+

 Subsystem Name                  Discretization       Linear Solution
                                (secs.   %total)     (secs.   %total) 
 ----------------------------------------------------------------------
 Wall Scale                     3.67E+01   0.2 %     8.65E+01   0.5 %
 Momentum and Mass              7.18E+03  37.9 %     2.90E+03  15.3 %
 Heat Transfer                  2.24E+03  11.8 %     6.06E+02   3.2 %
 TurbKE and TurbFreq            2.34E+03  12.4 %     1.33E+03   7.0 %
                                -------- -------     --------  ------
 Subsystem Summary              1.18E+04  62.3 %     4.92E+03  26.0 %

 GGI Intersection               1.08E+00    0.0 %
 File Reading                   6.13E+01    0.3 %
 Search Calculations            1.95E+00    0.0 %
 Variable Updates               1.85E+03    9.8 %
 File Writing                   7.43E+01    0.4 %
 Miscellaneous                  2.33E+02    1.2 %
                                --------
 Total                          1.89E+04

 +--------------------------------------------------------------------+
 |                   Job Information at End of Run                    |
 +--------------------------------------------------------------------+

 Job finished:   Thu Oct 20 10:57:46 2022

 Total wall clock time: 1.184E+03 seconds
             or: (          0:         0:        19:    44.068 )
                 (       Days:     Hours:   Minutes:   Seconds )



 --> Final synchronization point reached by all partitions.
End of solution stage.

 +--------------------------------------------------------------------+
 | The results from this run of the ANSYS CFX Solver have been        |
 | written to                                                         |
 | F:\Kislov\EM_402_Unst\BL7_Hub_Tipcl_GV1_GV2_v1_80prct_ps1_Steady_- |
 | with_Cav_Yes_Open2_ps1_004.res                                     |
 +--------------------------------------------------------------------+


This run of the ANSYS CFX Solver has finished.
